* C:\Users\alw\Desktop\spice\Analysis\Draft7.asc
R1 N002 N001 20
R2 N003 N002 20
R3 0 N003 40
I1 N003 N002 5
V1 N001 0 SINE(0 5 30)
.tran 0 1 0 0.001
.end

