* C:\Users\alw\Desktop\spice\Analysis\Draft7.asc
V1 N001 0 SINE(0 5 10)
R1 N002 N001 200
C1 N002 0 30
R2 N002 0 200
.tran 0 1 0 0.001
.end

