* C:\Users\alw\Desktop\spice\Analysis\Draft7.asc
V1 N001 0 SINE(0 2 100)
R1 N002 N001 10
C1 N002 0 10
.tran 0 1 0 0.001
.end

